.MODEL BC850C NPN (IS=10.1692F BF=674.532 NF=957.858M VAF=30.7 IKF=113.89M
+ ISE=0.784361F NE=1.17038 BR=513.46M IKR=89.1953 ISC=780.048F RE=1.5884
+ CJE=11.313P VJE=700M MJE=642.888M CJC=5.7247P VJC=700M MJC=310.512M
+ TF=498.979P XTF=499.921M VTF=10 ITF=10.4724M TR=10N )
